Circuit: * C:\Users\vigna\Documents\1.SAMEER\simulation stuff\LTSPICE\downloaded\IEC61000_4_2.asc

.OP point found by inspection.

Date: Thu Sep 03 10:05:22 2020
Total elapsed time: 0.068 seconds.

tnom = 27
temp = 27
method = modified trap
totiter = 1584
traniter = 1584
tranpoints = 708
accept = 611
rejected = 97
matrix size = 9
fillins = 2
solver = Normal
Matrix Compiler1: 408 bytes object code size  0.1/0.1/[0.1]
Matrix Compiler2: 681 bytes object code size  0.1/0.1/[0.0]

