Circuit: * C:\Users\vigna\Documents\1.SAMEER\simulation stuff\LTSPICE\Draft5.asc

Direct Newton iteration for .op point succeeded.

Date: Mon Aug 24 10:31:18 2020
Total elapsed time: 6.245 seconds.

tnom = 27
temp = 27
method = modified trap
totiter = 3310447
traniter = 3310430
tranpoints = 437964
accept = 328682
rejected = 109282
matrix size = 9
fillins = 6
solver = Normal
Matrix Compiler1: 650 bytes object code size  0.2/0.2/[0.1]
Matrix Compiler2: off  [0.1]/0.3/0.1

