Circuit: * C:\Users\vigna\Documents\1.SAMEER\simulation stuff\LTSPICE\Draft1.asc

x5:v3: Missing value, assumed 0V @ DC
x4:v3: Missing value, assumed 0V @ DC
x3:v3: Missing value, assumed 0V @ DC
x2:v3: Missing value, assumed 0V @ DC
x1:v3: Missing value, assumed 0V @ DC
Direct Newton iteration for .op point succeeded.

Date: Thu Aug 13 11:13:46 2020
Total elapsed time: 0.130 seconds.

tnom = 27
temp = 27
method = modified trap
totiter = 3265
traniter = 3262
tranpoints = 1632
accept = 1265
rejected = 367
matrix size = 53
fillins = 33
solver = Normal
Matrix Compiler1: 3.32 KB object code size  0.8/0.5/[0.3]
Matrix Compiler2: 3.80 KB object code size  0.3/0.6/[0.3]

