Circuit: * C:\Users\vigna\Documents\1.SAMEER\simulation stuff\LTSPICE\Draft6.asc

Direct Newton iteration for .op point succeeded.
Ignoring empty pin current: Ix(2:pin1)
Ignoring empty pin current: Ix(2:pin2)
Ignoring empty pin current: Ix(u1:1)
Ignoring empty pin current: Ix(u1:2)
Ignoring empty pin current: Ix(2:pin1)
Ignoring empty pin current: Ix(2:pin2)
Ignoring empty pin current: Ix(u1:1)
Ignoring empty pin current: Ix(u1:2)
Changing Tseed to 9.76562e-013
Changing Tseed to 9.76562e-015
Heightened Def Con from 2.78784e-006 to 2.78784e-006

Date: Fri Aug 28 10:16:19 2020
Total elapsed time: 28.804 seconds.

tnom = 27
temp = 27
method = modified trap
totiter = 2418530
traniter = 2418501
tranpoints = 564738
accept = 423571
rejected = 141166
matrix size = 26
fillins = 19
solver = Normal
Matrix Compiler1: 1.36 KB object code size  0.4/0.2/[0.1]
Matrix Compiler2: off  [0.2]/0.3/0.3

