Circuit: * C:\Users\vigna\Documents\1.SAMEER\simulation stuff\LTSPICE\Draft4.asc

Direct Newton iteration for .op point succeeded.

Date: Mon Aug 24 12:05:16 2020
Total elapsed time: 0.054 seconds.

tnom = 27
temp = 27
method = modified trap
totiter = 2090
traniter = 2082
tranpoints = 1042
accept = 1042
rejected = 0
matrix size = 12
fillins = 14
solver = Normal
Matrix Compiler1: 1.02 KB object code size  0.2/0.1/[0.1]
Matrix Compiler2:      87 opcodes  0.1/[0.1]/5.6

