Circuit: * C:\Users\vigna\Documents\1.SAMEER\simulation stuff\LTSPICE\Draft3.asc

Direct Newton iteration for .op point succeeded.


Measurement "tr1" FAIL'ed


Date: Tue Aug 11 14:31:20 2020
Total elapsed time: 0.090 seconds.

tnom = 27
temp = 27
method = modified trap
totiter = 2140
traniter = 2137
tranpoints = 1064
accept = 1057
rejected = 7
matrix size = 12
fillins = 0
solver = Normal
Matrix Compiler1: 320 bytes object code size  0.1/0.1/[0.0]
Matrix Compiler2: off  [0.1]/0.1/0.1

