Circuit: * C:\Users\vigna\Documents\1.SAMEER\simulation stuff\LTSPICE\gdtfilter1.asc

x1:v2: Missing value, assumed 0V @ DC
Direct Newton iteration for .op point succeeded.

Date: Thu Oct 01 10:17:58 2020
Total elapsed time: 0.074 seconds.

tnom = 27
temp = 27
method = modified trap
totiter = 5269
traniter = 5237
tranpoints = 1658
accept = 1468
rejected = 190
matrix size = 39
fillins = 21
solver = Normal
Matrix Compiler1: 2.33 KB object code size  0.8/0.5/[0.2]
Matrix Compiler2: 2.86 KB object code size  0.4/0.5/[0.3]

