Questionable use of curly braces in "c_gap t2 t1 {c}"
    Error: undefined symbol in: "[c]"
Questionable use of curly braces in "b_time time 0 v={time}"
    Error: undefined symbol in: "[time]"
Questionable use of curly braces in "b_e_gap e_gap 0  v=v(v_gp)/{{d}}"
    Error: undefined symbol in: "[d]"
Questionable use of curly braces in "b_e_gap e_gap 0  v=v(v_gp)/({d})"
    Error: undefined symbol in: "[d]"
Questionable use of curly braces in "b_v_brk v_break 0  v=uniform_air({{d}},{{p}})"
    Error: undefined symbol in: "[d]"
Questionable use of curly braces in "b_v_brk v_break 0  v=uniform_air(({d}),{{p}})"
    Error: undefined symbol in: "[d]"
Questionable use of curly braces in "b_v_brk v_break 0  v=uniform_air(((d)),{{p}})"
    Error: undefined symbol in: "[p]"
Questionable use of curly braces in "b_v_brk v_break 0  v=uniform_air(((d)),({p}))"
    Error: undefined symbol in: "[p]"
Questionable use of curly braces in "b_rho rho_v 0  v=({{p}}/760)*1.2"
    Error: undefined symbol in: "[p]"
Questionable use of curly braces in "b_rho rho_v 0  v=(({p})/760)*1.2"
    Error: undefined symbol in: "[p]"
Questionable use of curly braces in "b_l_ch l_ch 0  v=limit(1,100,wire_ind({{d}},v(ch_rad)))"
    Error: undefined symbol in: "[d]"
Questionable use of curly braces in "b_l_ch l_ch 0  v=limit(1,100,wire_ind(({d}),v(ch_rad)))"
    Error: undefined symbol in: "[d]"
Questionable use of curly braces in "b_r_ch r_ch 0  v=limit(1e-3,1e1,vlastos({{d}},v(ch_rad),v(i_ch),v(ch_on)))"
    Error: undefined symbol in: "[d]"
Questionable use of curly braces in "b_r_ch r_ch 0  v=limit(1e-3,1e1,vlastos(({d}),v(ch_rad),v(i_ch),v(ch_on)))"
    Error: undefined symbol in: "[d]"
Circuit: * C:\Users\vigna\Documents\1.SAMEER\simulation stuff\LTSPICE\sg_big.asc

