Circuit: * C:\Users\vigna\Documents\1.SAMEER\simulation stuff\LTSPICE\sg_marxgenerator.asc

V3: Missing value, assumed 0V @ DC
Direct Newton iteration for .op point succeeded.

Date: Mon Aug 17 16:42:18 2020
Total elapsed time: 0.084 seconds.

tnom = 27
temp = 27
method = modified trap
totiter = 2102
traniter = 2099
tranpoints = 1049
accept = 1049
rejected = 0
matrix size = 13
fillins = 0
solver = Normal
Matrix Compiler1: 352 bytes object code size  0.1/0.1/[0.1]
Matrix Compiler2: 769 bytes object code size  0.1/0.1/[0.1]

