Circuit: * C:\Users\vigna\Documents\1.SAMEER\simulation stuff\LTSPICE\sg_model_marx_surgesuppressor.asc

x1:v2: Missing value, assumed 0V @ DC
Direct Newton iteration for .op point succeeded.

Date: Thu Oct 01 09:33:41 2020
Total elapsed time: 0.071 seconds.

tnom = 27
temp = 27
method = modified trap
totiter = 4955
traniter = 4923
tranpoints = 1493
accept = 1355
rejected = 138
matrix size = 39
fillins = 21
solver = Normal
Matrix Compiler1: 2.33 KB object code size  0.6/0.3/[0.2]
Matrix Compiler2: off  [0.3]/0.5/0.4

