Circuit: * C:\Users\vigna\Documents\1.SAMEER\simulation stuff\LTSPICE\sg_model.asc

WARNING: Node 2 is floating.

WARNING: Less than two connections to node 2.  This node is used by V3.
V3: Missing value, assumed 0V @ DC
Direct Newton iteration for .op point succeeded.

Date: Mon Aug 17 16:08:18 2020
Total elapsed time: 0.075 seconds.

tnom = 27
temp = 27
method = modified trap
totiter = 2085
traniter = 2082
tranpoints = 1042
accept = 1042
rejected = 0
matrix size = 10
fillins = 1
solver = Normal
Matrix Compiler1: 310 bytes object code size  0.1/0.1/[0.1]
Matrix Compiler2: 578 bytes object code size  0.1/0.1/[0.1]

