Circuit: * C:\Users\vigna\Documents\1.SAMEER\simulation stuff\LTSPICE\sgmodel_marxgenerator.asc

x1:v2: Missing value, assumed 0V @ DC
Direct Newton iteration for .op point succeeded.

Date: Thu Aug 27 13:36:35 2020
Total elapsed time: 0.123 seconds.

tnom = 27
temp = 27
method = modified trap
totiter = 2228
traniter = 2225
tranpoints = 1105
accept = 1096
rejected = 9
matrix size = 14
fillins = 1
solver = Normal
Matrix Compiler1: 456 bytes object code size  0.2/0.1/[0.1]
Matrix Compiler2: off  [0.1]/0.2/0.1

