
**** 09/04/20 10:42:16 ****** PSpice Lite (October 2012) ****** ID# 10813 ****

 ** Profile: "SCHEMATIC1-marx2_suppression2"  [ c:\users\vigna\documents\1.sameer\simulation stuff\pspice\marx2_suppression2-pspicefi


 ****     CIRCUIT DESCRIPTION


******************************************************************************




** Creating circuit file "marx2_suppression2.cir" 
** WARNING: THIS AUTOMATICALLY GENERATED FILE MAY BE OVERWRITTEN BY SUBSEQUENT SIMULATIONS

*Libraries: 
* Profile Libraries :
* Local Libraries :
* From [PSPICE NETLIST] section of C:\Users\vigna\AppData\Roaming\SPB_16.6\cdssetup\OrCAD_PSpice/16.6.0/PSpice.ini file:
.lib "nomd.lib" 

*Analysis directives: 
.TRAN  0 5m 0 
.OPTIONS ADVCONV
.PROBE64 V(alias(*)) I(alias(*)) W(alias(*)) D(alias(*)) NOISE(alias(*)) 
.INC "..\SCHEMATIC1.net" 



**** INCLUDING SCHEMATIC1.net ****
* source MARX2_SUPPRESSION2
C_C         0 N12915  0.012u  TC=0,0 
X_U2         N12915 N12953 Sw_tClose PARAMS: tClose=10.9n ttran=0.075u
+  Rclosed=0.000001 Ropen=1Meg
L_L         N12921 N12927  0.001n  
R_Rs         0 N12953  500k TC=0,0 
C_Ceq         0 N12927  210.3p IC=-300kV TC=0,0 
R_R         N12953 N13924  60 TC=0,0 
L_L2         N13505 N13924  5000u  
C_C2         N13051 N13505  0.001u  TC=0,0 
X_U1         N12921 N12915 Sw_tClose PARAMS: tClose=0 ttran=0.2u Rclosed=0.01
+  Ropen=1Meg
L_L3         N13051 0  5000u  
C_C3         0 N13051  0.001u  TC=0,0 
L_L1         0 N13924  5000u  
X_MOV1         0 N13924 MOVBASEKEL PARAMS:  I1=50 V1=1355 I2=1m V2=820 CN=10p
+  TOL=10 TC=5 RON=10m
C_C1         0 0  0.001u  TC=0,0 
R_Rl         N13051 N13505  2 TC=0,0 
X_MOV2         N13051 N13924 MOVBASEKEL PARAMS:  I1=50 V1=1355 I2=1m V2=820
+  CN=10p TOL=10 TC=5 RON=10m
X_MOV3         0 0 MOVBASEKEL PARAMS:  I1=50 V1=1355 I2=1m V2=820 CN=10p TOL=10
+  TC=5 RON=10m

**** RESUMING marx2_suppression2.cir ****
.END

**** 09/04/20 10:42:16 ****** PSpice Lite (October 2012) ****** ID# 10813 ****

 ** Profile: "SCHEMATIC1-marx2_suppression2"  [ c:\users\vigna\documents\1.sameer\simulation stuff\pspice\marx2_suppression2-pspicefi


 ****     Voltage Controlled Switch MODEL PARAMETERS


******************************************************************************




               X_U2.Smod       X_U1.Smod       
         RON    1.000000E-06     .01         
        ROFF    1.000000E+06    1.000000E+06 
         VON    1               1            
        VOFF    0               0            


**** 09/04/20 10:42:16 ****** PSpice Lite (October 2012) ****** ID# 10813 ****

 ** Profile: "SCHEMATIC1-marx2_suppression2"  [ c:\users\vigna\documents\1.sameer\simulation stuff\pspice\marx2_suppression2-pspicefi


 ****     INITIAL TRANSIENT SOLUTION       TEMPERATURE =   27.000 DEG C


******************************************************************************



 NODE   VOLTAGE     NODE   VOLTAGE     NODE   VOLTAGE     NODE   VOLTAGE


(N12915) 150.0E+03 (N12921) 300.0E+03 (N12927) 300.0E+03 (N12953)    8.9987     

(N13051)    0.0000 (N13505)    0.0000 (N13924)    0.0000 (X_U1.3)    0.0000     

(X_U2.3)    0.0000 (X_MOV1.21)    0.0000                 (X_MOV1.22)    0.0000  

(X_MOV1.23)    0.0000                 (X_MOV1.24)    0.0000                     

(X_MOV1.25)    0.0000                 (X_MOV1.54)    0.0000                     

(X_MOV2.21)    0.0000                 (X_MOV2.22)    0.0000                     

(X_MOV2.23)    0.0000                 (X_MOV2.24)    0.0000                     

(X_MOV2.25)    0.0000                 (X_MOV2.54)    0.0000                     

(X_MOV3.21)    0.0000                 (X_MOV3.22)    0.0000                     

(X_MOV3.23)    0.0000                 (X_MOV3.24)    0.0000                     

(X_MOV3.25)    0.0000                 (X_MOV3.54)    0.0000                 




    VOLTAGE SOURCE CURRENTS
    NAME         CURRENT

    X_U2.V1      0.000E+00
    X_U1.V1      0.000E+00
    X_MOV1.VSENSE   0.000E+00
    X_MOV2.VSENSE   0.000E+00
    X_MOV3.VSENSE   0.000E+00

    TOTAL POWER DISSIPATION   0.00E+00  WATTS



          JOB CONCLUDED

**** 09/04/20 10:42:16 ****** PSpice Lite (October 2012) ****** ID# 10813 ****

 ** Profile: "SCHEMATIC1-marx2_suppression2"  [ c:\users\vigna\documents\1.sameer\simulation stuff\pspice\marx2_suppression2-pspicefi


 ****     JOB STATISTICS SUMMARY


******************************************************************************



  Total job time (using Solver 1)   =         .11
