
**** 09/04/20 16:21:49 ****** PSpice Lite (October 2012) ****** ID# 10813 ****

 ** Profile: "SCHEMATIC1-marx2_surgesupression"  [ C:\Users\vigna\Documents\1.SAMEER\simulation stuff\PSPICE\marx2_surgesupressor-psp


 ****     CIRCUIT DESCRIPTION


******************************************************************************




** Creating circuit file "marx2_surgesupression.cir" 
** WARNING: THIS AUTOMATICALLY GENERATED FILE MAY BE OVERWRITTEN BY SUBSEQUENT SIMULATIONS

*Libraries: 
* Profile Libraries :
* Local Libraries :
* From [PSPICE NETLIST] section of C:\Users\vigna\AppData\Roaming\SPB_16.6\cdssetup\OrCAD_PSpice/16.6.0/PSpice.ini file:
.lib "nomd.lib" 

*Analysis directives: 
.TRAN  0 5ms 0 
.OPTIONS ADVCONV
.PROBE64 V(alias(*)) I(alias(*)) W(alias(*)) D(alias(*)) NOISE(alias(*)) 
.INC "..\SCHEMATIC1.net" 



**** INCLUDING SCHEMATIC1.net ****
* source MARX2_SURGESUPRESSOR
L_L4         N20928 N20794  500u  
R_R5         0 N20928  2 TC=0,0 
C_C1         0 N21070  210.3p IC=-300kV TC=0,0 
X_U1         N21064 N20478 Sw_tClose PARAMS: tClose=0 ttran=0.2u Rclosed=0.01
+  Ropen=1Meg
R_R3         N20488 N20794  60 TC=0,0 
C_C7         0 N20928  0.001u  TC=0,0 
R_R4         0 N20488  500k TC=0,0 
C_C2         0 N20478  0.012u  TC=0,0 
X_U2         N20478 N20488 Sw_tClose PARAMS: tClose=10.9n ttran=0.075u
+  Rclosed=0.000001 Ropen=1Meg
L_L1         N21064 N21070  0.001n  
X_VR3         0 N20794 MOVBASEKEL PARAMS:  I1=50 V1=1355 I2=1m V2=820 CN=10p
+  TOL=10 TC=5 RON=10m

**** RESUMING marx2_surgesupression.cir ****
.END

**** 09/04/20 16:21:49 ****** PSpice Lite (October 2012) ****** ID# 10813 ****

 ** Profile: "SCHEMATIC1-marx2_surgesupression"  [ C:\Users\vigna\Documents\1.SAMEER\simulation stuff\PSPICE\marx2_surgesupressor-psp


 ****     Voltage Controlled Switch MODEL PARAMETERS


******************************************************************************




               X_U1.Smod       X_U2.Smod       
         RON     .01            1.000000E-06 
        ROFF    1.000000E+06    1.000000E+06 
         VON    1               1            
        VOFF    0               0            


**** 09/04/20 16:21:49 ****** PSpice Lite (October 2012) ****** ID# 10813 ****

 ** Profile: "SCHEMATIC1-marx2_surgesupression"  [ C:\Users\vigna\Documents\1.SAMEER\simulation stuff\PSPICE\marx2_surgesupressor-psp


 ****     INITIAL TRANSIENT SOLUTION       TEMPERATURE =   27.000 DEG C


******************************************************************************



 NODE   VOLTAGE     NODE   VOLTAGE     NODE   VOLTAGE     NODE   VOLTAGE


(N20478) 150.0E+03 (N20488)    9.2986 (N20794)     .3000 (N20928)     .3000     

(N21064) 300.0E+03 (N21070) 300.0E+03 (X_U1.3)    0.0000 (X_U2.3)    0.0000     

(X_VR3.21)    0.0000                  (X_VR3.22)     .3000                      

(X_VR3.23) 1.501E-12                  (X_VR3.24)    0.0000                      

(X_VR3.25)    0.0000                  (X_VR3.54) 19.79E-09                  




    VOLTAGE SOURCE CURRENTS
    NAME         CURRENT

    X_U1.V1      0.000E+00
    X_U2.V1      0.000E+00
    X_VR3.VSENSE  -3.003E-10

    TOTAL POWER DISSIPATION   0.00E+00  WATTS



          JOB CONCLUDED

**** 09/04/20 16:21:49 ****** PSpice Lite (October 2012) ****** ID# 10813 ****

 ** Profile: "SCHEMATIC1-marx2_surgesupression"  [ C:\Users\vigna\Documents\1.SAMEER\simulation stuff\PSPICE\marx2_surgesupressor-psp


 ****     JOB STATISTICS SUMMARY


******************************************************************************



  Total job time (using Solver 1)   =         .11
