
**** 09/18/20 14:43:13 ****** PSpice Lite (October 2012) ****** ID# 10813 ****

 ** Profile: "SCHEMATIC1-marx7"  [ C:\Users\vigna\Documents\1.SAMEER\simulation stuff\PSPICE\marx_suppressor7-pspicefiles\schematic1\


 ****     CIRCUIT DESCRIPTION


******************************************************************************




** Creating circuit file "marx7.cir" 
** WARNING: THIS AUTOMATICALLY GENERATED FILE MAY BE OVERWRITTEN BY SUBSEQUENT SIMULATIONS

*Libraries: 
* Profile Libraries :
* Local Libraries :
* From [PSPICE NETLIST] section of C:\Users\vigna\AppData\Roaming\SPB_16.6\cdssetup\OrCAD_PSpice/16.6.0/PSpice.ini file:
.lib "nomd.lib" 

*Analysis directives: 
.TRAN  0 5m 0 
.OPTIONS ADVCONV
.PROBE64 V(alias(*)) I(alias(*)) W(alias(*)) D(alias(*)) NOISE(alias(*)) 
.INC "..\SCHEMATIC1.net" 



**** INCLUDING SCHEMATIC1.net ****
* source MARX_SUPPRESSOR7
C_philips         33045_2 N41137 N41091  0.22n  TC=0,0 
X_U2         N41441 N41451 Sw_tClose PARAMS: tClose=10.9n ttran=0.075u
+  Rclosed=0.000001 Ropen=1Meg
R_R1         N41091 N41079  2.2 TC=0,0 
R_R4         0 N41137  0.01 TC=0,0 
C_philips         33045 N41073 N41079  0.22n  TC=0,0 

ERROR(ORPSIM-15089): Can not re-define C_philips. C_philips is either a system defined variable or has already been defined
------------------$
ERROR(ORPSIM-16371): Extra text on line
R_Rs         0 N41451  500k TC=0,0 
L_WE330         N41125 N41079  3m  
L_L         N41625 N41631  0.001n  
R_R         N41451 N41125  60 TC=0,0 
R_R3         0 N41073  0.01 TC=0,0 
L_WE330_2         N41151 N41091  3m  
C_C         0 N41441  0.012u  TC=0,0 
X_U1         N41625 N41441 Sw_tClose PARAMS: tClose=0 ttran=0.2u Rclosed=0.01
+  Ropen=1Meg
C_Ceq         0 N41631  210.3p IC=-13kv TC=0,0 
R_R2         0 N41151  0.01 TC=0,0 
X_1         N41073 N41125 MOVBASEKEL PARAMS:  I1=1m V1=430 I2=50 V2=710 CN=10p
+  TOL=10 TC=5 RON=10m
X_2         N41137 N41151 MOVBASEKEL PARAMS:  I1=1m V1=750 I2=50 V2=1240 CN=10p
+  TOL=10 TC=5 RON=10m

**** RESUMING marx7.cir ****
.END
