
**** 09/04/20 16:02:07 ****** PSpice Lite (October 2012) ****** ID# 10813 ****

 ** Profile: "SCHEMATIC1-surgesupression"  [ c:\users\vigna\documents\1.sameer\simulation stuff\pspice\surgesupressor-pspicefiles\sch


 ****     CIRCUIT DESCRIPTION


******************************************************************************




** Creating circuit file "surgesupression.cir" 
** WARNING: THIS AUTOMATICALLY GENERATED FILE MAY BE OVERWRITTEN BY SUBSEQUENT SIMULATIONS

*Libraries: 
* Profile Libraries :
* Local Libraries :
* From [PSPICE NETLIST] section of C:\Users\vigna\AppData\Roaming\SPB_16.6\cdssetup\OrCAD_PSpice/16.6.0/PSpice.ini file:
.lib "nomd.lib" 

*Analysis directives: 
.TRAN  0 0.1s 0 
.OPTIONS ADVCONV
.PROBE64 V(alias(*)) I(alias(*)) W(alias(*)) D(alias(*)) NOISE(alias(*)) 
.INC "..\SCHEMATIC1.net" 



**** INCLUDING SCHEMATIC1.net ****
* source SURGESUPRESSOR
R_R2         N02180 N02190  940m TC=0,0 
R_R3         0 N02180  25.1 TC=0,0 
R_R4         N02169 N02176  1k TC=0,0 
C_C1         0 N02176  6.04u  TC=0,0 
L_L1         N02190 N02224  10uH  
X_U1         N02176 N02180 Sw_tClose PARAMS: tClose=0.025s ttran=1u
+  Rclosed=0.01 Ropen=1Meg
V_V3         N02169 0 50Vdc
R_R5         0 N02224  19.9 TC=0,0 
X_VR1         0 N02224 MOVBASEKEL PARAMS:  I1=1m V1=235 I2=3 V2=300 CN=10p
+  TOL=10 TC=5 RON=10m
R_R6         0 N02224  160 TC=0,0 

**** RESUMING surgesupression.cir ****
.END

**** 09/04/20 16:02:07 ****** PSpice Lite (October 2012) ****** ID# 10813 ****

 ** Profile: "SCHEMATIC1-surgesupression"  [ c:\users\vigna\documents\1.sameer\simulation stuff\pspice\surgesupressor-pspicefiles\sch


 ****     Voltage Controlled Switch MODEL PARAMETERS


******************************************************************************




               X_U1.Smod       
         RON     .01         
        ROFF    1.000000E+06 
         VON    1            
        VOFF    0            


**** 09/04/20 16:02:07 ****** PSpice Lite (October 2012) ****** ID# 10813 ****

 ** Profile: "SCHEMATIC1-surgesupression"  [ c:\users\vigna\documents\1.sameer\simulation stuff\pspice\surgesupressor-pspicefiles\sch


 ****     INITIAL TRANSIENT SOLUTION       TEMPERATURE =   27.000 DEG C


******************************************************************************



 NODE   VOLTAGE     NODE   VOLTAGE     NODE   VOLTAGE     NODE   VOLTAGE


(N02169)   50.0000 (N02176)   49.9500 (N02180) 534.3E-06 (N02190) 507.3E-06     

(N02224) 507.3E-06 (X_U1.3)    0.0000 (X_VR1.21)    0.0000                      

(X_VR1.22) 507.3E-06                  (X_VR1.23) 2.539E-15                      

(X_VR1.24)    0.0000                  (X_VR1.25)    0.0000                      

(X_VR1.54) 133.0E-21                  




    VOLTAGE SOURCE CURRENTS
    NAME         CURRENT

    V_V3        -4.995E-05
    X_U1.V1      0.000E+00
    X_VR1.VSENSE  -5.078E-13

    TOTAL POWER DISSIPATION   2.50E-03  WATTS



          JOB CONCLUDED

**** 09/04/20 16:02:07 ****** PSpice Lite (October 2012) ****** ID# 10813 ****

 ** Profile: "SCHEMATIC1-surgesupression"  [ c:\users\vigna\documents\1.sameer\simulation stuff\pspice\surgesupressor-pspicefiles\sch


 ****     JOB STATISTICS SUMMARY


******************************************************************************



  Total job time (using Solver 1)   =         .20
