
**** 07/23/20 12:43:31 ****** PSpice Lite (October 2012) ****** ID# 10813 ****

 ** Profile: "SCHEMATIC1-surgesupression"  [ C:\Users\vigna\Documents\1.SAMEER\surgesupressor-PSpiceFiles\SCHEMATIC1\surgesupression.


 ****     CIRCUIT DESCRIPTION


******************************************************************************




** Creating circuit file "surgesupression.cir" 
** WARNING: THIS AUTOMATICALLY GENERATED FILE MAY BE OVERWRITTEN BY SUBSEQUENT SIMULATIONS

*Libraries: 
* Profile Libraries :
* Local Libraries :
* From [PSPICE NETLIST] section of C:\Users\vigna\AppData\Roaming\SPB_16.6\cdssetup\OrCAD_PSpice/16.6.0/PSpice.ini file:
.lib "nomd.lib" 

*Analysis directives: 
.TRAN  0 0.1s 0 
.OPTIONS ADVCONV
.PROBE64 V(alias(*)) I(alias(*)) W(alias(*)) D(alias(*)) NOISE(alias(*)) 
.INC "..\SCHEMATIC1.net" 



**** INCLUDING SCHEMATIC1.net ****
* source SURGESUPRESSOR
R_R2         N02180 N02190  940m TC=0,0 
R_R3         0 N02180  25.1 TC=0,0 
R_R4         N02169 N02176  1k TC=0,0 
C_C1         0 N02176  6.04u  TC=0,0 
L_L1         N02190 N02224  10uH  
X_U1         N02176 N02180 Sw_tClose PARAMS: tClose=0.01s ttran=1u Rclosed=0.01
+  Ropen=1Meg
V_V3         N02169 0 1kVdc
R_R5         0 N02224  19.8 TC=0,0 
R_R6         0 N02224  0 TC=0,0 
-----------------------$
ERROR(ORPSIM-16144): Value may not be 0

**** RESUMING surgesupression.cir ****
.END
