
**** 08/19/20 16:25:10 ****** PSpice Lite (October 2012) ****** ID# 10813 ****

 ** Profile: "SCHEMATIC1-marx_multiple"  [ C:\Users\vigna\Documents\1.SAMEER\simulation stuff\PSPICE\MARX_MULTIPLE-PSpiceFiles\SCHEMA


 ****     CIRCUIT DESCRIPTION


******************************************************************************




** Creating circuit file "marx_multiple.cir" 
** WARNING: THIS AUTOMATICALLY GENERATED FILE MAY BE OVERWRITTEN BY SUBSEQUENT SIMULATIONS

*Libraries: 
* Profile Libraries :
* Local Libraries :
* From [PSPICE NETLIST] section of C:\Users\vigna\AppData\Roaming\SPB_16.6\cdssetup\OrCAD_PSpice/16.6.0/PSpice.ini file:
.lib "nomd.lib" 

*Analysis directives: 
.TRAN  0 5000ns 0 
.OPTIONS ADVCONV
.PROBE64 V(alias(*)) I(alias(*)) W(alias(*)) D(alias(*)) NOISE(alias(*)) 
.INC "..\SCHEMATIC1.net" 



**** INCLUDING SCHEMATIC1.net ****
* source MARX_MULTIPLE
R_R1         N01125 N01233  500K TC=0,0 
R_R2         N01233 N01307  500K TC=0,0 
R_R3         N01307 N01410  500K TC=0,0 
R_R4         N01410 N01499  500K TC=0,0 
R_R5         N01499 N01560  500K TC=0,0 
R_R6         N01560 N01660  500K TC=0,0 
R_R8         N00963 N01190  500K TC=0,0 
R_R9         N01190 N01264  500K TC=0,0 
R_R10         N01264 N01367  500K TC=0,0 
R_R11         N01367 N01444  500K TC=0,0 
R_R12         N01444 N01535  500K TC=0,0 
R_R13         N01535 N01584  500K TC=0,0 
R_R15         0 N00963  500K TC=0,0 
R_R16         N00963 N01255  500K TC=0,0 
R_R17         N01255 N01358  500K TC=0,0 
R_R18         N01358 N01440  500K TC=0,0 
R_R19         N01440 N01539  500K TC=0,0 
R_R20         N01539 N01575  500K TC=0,0 
R_R21         N01575 N01668  500K TC=0,0 
C_C1         0 N00963  3.1n  TC=0,0 
C_C2         N01125 N00963  3.1n  TC=0,0 
C_C3         N00963 N01190  3.1n  TC=0,0 
C_C4         N01233 N01255  3.1n  TC=0,0 
C_C5         N01255 N01264  3.1n  TC=0,0 
C_C6         N01307 N01358  3.1n  TC=0,0 
C_C7         N01358 N01367  3.1n  TC=0,0 
C_C8         N01410 N01440  3.1n  TC=0,0 
C_C9         N01440 N01444  3.1n  TC=0,0 
C_C10         N01495 N01539  3.1n  TC=0,0 
C_C11         N01539 N01535  3.1n  TC=0,0 
C_C12         N01560 N01575  3.1n  TC=0,0 
C_C13         N01575 N01584  3.1n  TC=0,0 
X_U1         N00963 N01125 Sw_tClose PARAMS: tClose=0 ttran=1n Rclosed=0.01
+  Ropen=1Meg
R_R22         N01685 N00963  500K TC=0,0 
R_R23         N01689 N01125  500K TC=0,0 
R_R24         0 N01685  500K TC=0,0 
R_R25         0 N01689  500K TC=0,0 
X_U2         N01190 N01233 Sw_tClose PARAMS: tClose=0 ttran=1n Rclosed=0.01
+  Ropen=1Meg
X_U3         N01264 N01307 Sw_tClose PARAMS: tClose=0 ttran=1n Rclosed=0.01
+  Ropen=1Meg
X_U4         N01367 N01410 Sw_tClose PARAMS: tClose=0 ttran=1n Rclosed=0.01
+  Ropen=1Meg
X_U5         N01444 N01495 Sw_tClose PARAMS: tClose=0 ttran=1n Rclosed=0.01
+  Ropen=1Meg
X_U6         N01535 N01560 Sw_tClose PARAMS: tClose=0 ttran=1n Rclosed=0.01
+  Ropen=1Meg
X_U7         N01584 N01660 Sw_tClose PARAMS: tClose=0 ttran=1n Rclosed=0.01
+  Ropen=1Meg
C_C14         N01668 N01660  3.1n  TC=0,0 
L_Lm         N01768 N01668  0.001p  
C_Cp         0 N01768  0.005u  TC=0,0 
X_U8         N03269 N01768 Sw_tClose PARAMS: tClose=10.99n ttran=1n
+  Rclosed=0.01 Ropen=1Meg
R_RL         0 N03269  150 TC=0,0 
V_V1         0 0 500KV

**** RESUMING marx_multiple.cir ****
.END

ERROR(ORPSIM-15143): Voltage source and/or inductor loop involving V_V1. You may break the loop by adding a series resistance
